115

Au      10.19769768       9.35009580       9.45253127
Au       8.19500665      10.83425384       8.19732922
Au       7.75264863       8.04213183       9.18005126
Au      10.35036967       6.59645372       9.08930626
Au       9.36195568       8.42631578       6.96224516
Au      12.25010661       8.44600480       7.79589527
Au      11.02111665      10.86749082       7.26794618
Au      12.20038871       7.86593776      10.70773332
Au      12.64274673      10.65805977       9.72501128
Au      10.04502569      12.10373788       9.81575628
Au      11.03343968      10.27387582      11.94281738
Au       8.14528875      10.25418680      11.10916727
Au       9.37427871       7.83270078      11.63711636
Au      11.65707866       9.05502879       4.86850636
Au      14.05381874      10.73820978       6.89179819
Au       6.33676676       8.82023077       6.59741037
Au       7.96584777       5.71209269       7.20887726
Au       7.14306978      13.04655581      10.02124130
Au       9.28634069      13.51548200       7.21350735
Au       6.34157662       7.96198182      12.01326435
Au       8.73831670       9.64516281      14.03655618
Au      14.05862860       9.87996083      12.30765217
Au      12.42954759      12.98809891      11.69618528
Au      13.25232558       5.65363579       8.88382124
Au      11.10905467       5.18470960      11.69155519
S       6.27156476      11.14048879       6.77826827
C       7.22598962      11.45965772       5.27027028
H       7.21218566      10.49093585       4.73441022
H       8.27252666      11.72422176       5.48674434
H       6.75278978      12.21990590       4.62980121
S       9.77049867       4.50292878       8.04948228
C       8.88555269       3.76456600       9.44896227
H       9.67741768       3.58354860      10.20125329
H       8.42384569       2.79958873       9.18868827
H       8.14246969       4.45163875       9.88238128
S       7.60784177      14.62398677       8.37984031
C       6.25904469      14.13490777       7.27150720
H       6.02929358      13.09439569       7.57201724
H       6.56705169      14.13330703       6.21451824
H       5.35617975      14.74792962       7.41688316
S      10.99395768      12.77923971       5.80587619
C       9.90596668      12.04904681       4.55290120
H       9.70201368      11.03049379       4.93592828
H      10.39859569      11.96131378       3.57223122
H       8.94959466      12.58739977       4.46557515
S      13.80760173       9.92571180       4.72981017
C      13.34779767      11.50069981       3.95854705
H      12.88441757      11.20343380       2.99799006
H      14.22398667      12.13159685       3.74323743
H      12.60155062      12.05310684       4.55020326
S       9.55100171       8.09702580       4.58865540
C      10.10715868       6.37259989       4.65108245
H       9.65232066       5.97787075       5.58009737
H      11.20174066       6.28978377       4.73550933
H       9.73274569       5.78216272       3.80061620
S       6.02277045       6.54644471       6.24612921
C       6.59587459       6.50683384       4.52658408
H       6.44460968       5.45439988       4.21794551
H       7.66677479       6.74640684       4.43784421
H       5.99279360       7.15336972       3.87055104
S       5.69191555       7.07407074       9.96346330
C       6.38655977       5.42326575      10.24482929
H       5.85499148       5.05878787      11.14502232
H       7.46474175       5.45604091      10.46515732
H       6.17630772       4.73440271       9.41214827
S      14.02545456       6.96306281       7.12317627
C      13.09834770       6.10089689       5.82548826
H      12.90210370       5.10008388       6.25632422
H      13.68818359       5.97514968       4.90441411
H      12.13274471       6.58430271       5.61095231
S      14.12383060       7.55970281      12.12679427
C      13.16940574       7.24053388      13.63479226
H      13.76316456       6.47498780      14.17065232
H      12.17424468       6.82233577      13.41831820
H      13.09008960       8.13249975      14.27526133
S      10.62489669      14.19726282      10.85558026
C      11.50984267      14.93562560       9.45610027
H      11.54607872      14.12414461       8.70380925
H      12.54191760      15.21700292       9.71637427
H      10.96699570      15.78976970       9.02268126
S      12.78755359       4.07620483      10.52522223
C      14.13635067       4.56528383      11.63355534
H      14.97960858       3.91384893      11.33304530
H      13.90095262       4.36664300      12.69054430
H      14.43647675       5.61451488      11.48817938
S       9.40143768       5.92095189      13.09918635
C      10.48942868       6.65114479      14.35216134
H      11.50931362       6.45395379      13.96913426
H      10.38396068       6.16200476      15.33283132
H      10.35359267       7.74018877      14.43948739
S       6.58779363       8.77447980      14.17525237
C       7.04759769       7.19949179      14.94651549
H       6.49706463       7.20075469      15.90707248
H       8.12560062       7.13910489      15.16182511
H       6.71577458       6.33235174      14.35485928
S      10.84439365      10.60316580      14.31640714
C      10.28823668      12.32759171      14.25398009
H       9.68847970      12.38219576      13.32496517
H      11.12817470      13.03432374      14.16955321
H       9.63940470      12.58801489      15.10444634
S      14.37262491      12.15374689      12.65893333
C      13.79952077      12.19335776      14.37847846
H      13.80455879      11.13011985      14.68711703
H      12.77176265      12.57798081      14.46721833
H      14.48581461      12.75077682      15.03451150
S      14.70347981      11.62612086       8.94159924
C      14.00883559      13.27692585       8.66023325
H      13.37659864      13.15168481       7.76004022
H      14.78607086      14.02489381       8.43990522
H      13.36931376      13.60821061       9.49291427
S       6.36994080      11.73712879      11.78188627
C       7.29704766      12.59929471      13.07957428
H       8.30945365      12.72247081      12.64873832
H       7.37970475      12.00189572      14.00064843
H       6.88491277      13.59740072      13.29411023
